# generated using pymatgen
data_MnH28C26(N2Cl)2
_symmetry_space_group_name_H-M   I4_1/a
_cell_length_a   17.24076887
_cell_length_b   17.24076887
_cell_length_c   42.61955124
_cell_angle_alpha   90.00000000
_cell_angle_beta   90.00000000
_cell_angle_gamma   90.00000000
_symmetry_Int_Tables_number   88
_chemical_formula_structural   MnH28C26(N2Cl)2
_chemical_formula_sum   'Mn16 H448 C416 N64 Cl32'
_cell_volume   12668.41062666
_cell_formula_units_Z   16
loop_
 _symmetry_equiv_pos_site_id
 _symmetry_equiv_pos_as_xyz
  1  'x, y, z'
  2  '-y, x+1/2, z+1/4'
  3  '-x+1/2, -y+1/2, z+1/2'
  4  'y+1/2, -x, z+3/4'
  5  '-x, -y+1/2, -z+1/4'
  6  'y, -x, -z'
  7  'x+1/2, y, -z+3/4'
  8  '-y+1/2, x+1/2, -z+1/2'
  9  'x+1/2, y+1/2, z+1/2'
  10  '-y+1/2, x, z+3/4'
  11  '-x, -y, z'
  12  'y, -x+1/2, z+1/4'
  13  '-x+1/2, -y, -z+3/4'
  14  'y+1/2, -x+1/2, -z+1/2'
  15  'x, y+1/2, -z+1/4'
  16  '-y, x, -z'
loop_
 _atom_site_type_symbol
 _atom_site_label
 _atom_site_symmetry_multiplicity
 _atom_site_fract_x
 _atom_site_fract_y
 _atom_site_fract_z
 _atom_site_occupancy
  Mn  Mn0  8  0.00000000  0.00000000  0.21571169  1
  Mn  Mn1  8  0.00000000  0.00000000  0.40595919  1
  H  H2  16  0.02691913  0.67128230  0.44807684  1
  H  H3  16  0.02954898  0.10671132  0.15636642  1
  H  H4  16  0.03067772  0.40232029  0.90526844  1
  H  H5  16  0.03107320  0.60142883  0.71577235  1
  H  H6  16  0.03173134  0.67244352  0.82685315  1
  H  H7  16  0.03268554  0.39814566  0.52575566  1
  H  H8  16  0.03430813  0.32815386  0.63959505  1
  H  H9  16  0.03519025  0.32805823  0.01665386  1
  H  H10  16  0.03739881  0.17946168  0.68352417  1
  H  H11  16  0.04038878  0.31957673  0.75560548  1
  H  H12  16  0.04133712  0.17623312  0.30483891  1
  H  H13  16  0.04523565  0.31297164  0.13238255  1
  H  H14  16  0.10680730  0.25533243  0.83758048  1
  H  H15  16  0.10876371  0.75373428  0.78929948  1
  H  H16  16  0.10977779  0.28774236  0.89455022  1
  H  H17  16  0.11026865  0.21237994  0.54547976  1
  H  H18  16  0.11074172  0.28795708  0.51681784  1
  H  H19  16  0.11188129  0.74656435  0.64766628  1
  H  H20  16  0.11322638  0.74863429  0.27106856  1
  H  H21  16  0.11570114  0.71147154  0.32758611  1
  H  H22  16  0.15615182  0.23400771  0.66468725  1
  H  H23  16  0.16099314  0.26518751  0.77361370  1
  H  H24  16  0.16149487  0.23491408  0.28831941  1
  H  H25  16  0.16828259  0.25807802  0.14857220  1
  H  H26  16  0.23289308  0.24224136  0.69192027  1
  H  H27  16  0.23687527  0.24659969  0.87172154  1
  H  H28  16  0.23739304  0.73860569  0.75359828  1
  H  H29  16  0.23837817  0.26091285  0.56569665  1
  C  C30  16  0.03047138  0.60533707  0.52595838  1
  C  C31  16  0.03210651  0.39561416  0.71572628  1
  C  C32  16  0.03239123  0.10236548  0.34539106  1
  C  C33  16  0.03378515  0.39227991  0.09357050  1
  C  C34  16  0.06445639  0.14616325  0.81990270  1
  C  C35  16  0.06619226  0.14596313  0.44177830  1
  C  C36  16  0.06797977  0.35437612  0.62065940  1
  C  C37  16  0.06923583  0.35510492  0.99801562  1
  C  C38  16  0.07000412  0.14882947  0.70161837  1
  C  C39  16  0.07239684  0.35153736  0.73771654  1
  C  C40  16  0.07289960  0.64651083  0.92651633  1
  C  C41  16  0.07578573  0.84720733  0.13526910  1
  C  C42  16  0.10854016  0.19215486  0.83983720  1
  C  C43  16  0.10870441  0.19045592  0.46278812  1
  C  C44  16  0.11107759  0.80971725  0.65009490  1
  C  C45  16  0.11187481  0.31165127  0.97665998  1
  C  C46  16  0.14777406  0.74989175  0.71886474  1
  C  C47  16  0.15045108  0.25167961  0.90805938  1
  C  C48  16  0.15102784  0.65331547  0.54733027  1
  C  C49  16  0.15151657  0.15344640  0.48648610  1
  C  C50  16  0.15222272  0.34629224  0.57562847  1
  C  C51  16  0.15436101  0.15688407  0.86301578  1
  C  C52  16  0.19633553  0.20008567  0.67929363  1
  C  C53  16  0.19817948  0.69985779  0.74051200  1
  C  C54  16  0.19885481  0.29961697  0.55269609  1
  C  C55  16  0.20151501  0.20521468  0.88527966  1
  N  N56  16  0.06369315  0.43225878  0.61874368  1
  N  N57  16  0.06380828  0.56787299  0.80699853  1
  N  N58  16  0.06399380  0.06809800  0.82142321  1
  N  N59  16  0.06598522  0.43313457  0.99694715  1
  Cl  Cl60  16  0.09973406  0.10686278  0.21623989  1
  Cl  Cl61  16  0.10219391  0.60331010  0.65531997  1
